@<TRIPOS>MOLECULE
CWK
   45    47     1     0     0
SMALL
No Charge or Current Charge


@<TRIPOS>ATOM
      1 C1          -2.2840     7.7420     9.9910 c3      1160 CWK       0.000000
      2 O2          -3.2850     8.7610    10.1170 os      1160 CWK       0.000000
      3 C3          -1.0590     8.4360     9.4920 c3      1160 CWK       0.000000
      4 O4          -0.0580     7.4400     9.4060 oh      1160 CWK       0.000000
      5 C5          -1.3520     9.0460     8.0830 c3      1160 CWK       0.000000
      6 O6          -0.1020     9.5770     7.5710 oh      1160 CWK       0.000000
      7 C7          -1.8310     7.9640     7.1420 c3      1160 CWK       0.000000
      8 O8          -2.1810     8.5860     5.8990 oh      1160 CWK       0.000000
      9 C9          -3.0750     7.3380     7.7260 c3      1160 CWK       0.000000
     10 O10         -2.7840     6.7670     9.0220 os      1160 CWK       0.000000
     11 C11         -3.6180     6.1590     6.9000 c3      1160 CWK       0.000000
     12 O12         -2.6440     5.1300     6.7710 oh      1160 CWK       0.000000
     13 H13         -2.0860     7.2710    10.9540 h2      1160 CWK       0.000000
     14 H14         -0.7620     9.2210    10.1870 h1      1160 CWK       0.000000
     15 H15          0.0940     7.0410    10.3100 ho      1160 CWK       0.000000
     16 H16         -2.1020     9.8330     8.1620 h1      1160 CWK       0.000000
     17 H17          0.5760     8.8440     7.5200 ho      1160 CWK       0.000000
     18 H18         -1.0550     7.2110     7.0020 h1      1160 CWK       0.000000
     19 H19         -2.5440     7.8960     5.2720 ho      1160 CWK       0.000000
     20 H20         -3.8500     8.0980     7.8300 h1      1160 CWK       0.000000
     21 H21         -4.3830     5.6260     7.3680 h1      1160 CWK       0.000000
     22 H22         -3.7780     6.3820     5.8930 h1      1160 CWK       0.000000
     23 H23         -3.0220     4.3780     6.2310 ho      1160 CWK       0.000000
     24 Cl24        -5.1380    11.1180    10.0650 cl      1160 CWK       0.000000
     25 C25         -4.5510     8.4810    10.6020 ca      1160 CWK       0.000000
     26 C26         -4.8970     7.2030    11.0770 ca      1160 CWK       0.000000
     27 C27         -6.1910     6.9540    11.5690 ca      1160 CWK       0.000000
     28 C28         -7.1890     7.9650    11.5950 cp      1160 CWK       0.000000
     29 C29         -6.8120     9.2440    11.1060 ca      1160 CWK       0.000000
     30 C30         -5.5190     9.5000    10.6270 ca      1160 CWK       0.000000
     31 C31         -8.5840     7.7000    12.1120 cp      1160 CWK       0.000000
     32 C32         -9.4490     8.7620    12.4910 ca      1160 CWK       0.000000
     33 C33        -10.7490     8.5220    12.9660 ca      1160 CWK       0.000000
     34 C34        -11.2270     7.2090    13.0910 ca      1160 CWK       0.000000
     35 C35        -10.3990     6.1390    12.7260 ca      1160 CWK       0.000000
     36 C36         -9.1030     6.3820    12.2380 ca      1160 CWK       0.000000
     37 C37        -12.5570     6.9660    13.5770 cg      1160 CWK       0.000000
     38 N38        -13.6220     6.7680    13.9790 n1      1160 CWK       0.000000
     39 H39         -4.1700     6.3990    11.0890 ha      1160 CWK       0.000000
     40 H40         -6.4020     5.9560    11.9420 ha      1160 CWK       0.000000
     41 H41         -7.5210    10.0600    11.0760 ha      1160 CWK       0.000000
     42 H42         -9.1170     9.7910    12.4310 ha      1160 CWK       0.000000
     43 H43        -11.3840     9.3620    13.2430 ha      1160 CWK       0.000000
     44 H44        -10.7640     5.1180    12.8130 ha      1160 CWK       0.000000
     45 H45         -8.5150     5.5220    11.9430 ha      1160 CWK       0.000000
@<TRIPOS>BOND
     1     1     2 1   
     2     1     3 1   
     3     1    10 1   
     4     1    13 1   
     5     2    25 1   
     6     3     4 1   
     7     3     5 1   
     8     3    14 1   
     9     4    15 1   
    10     5     6 1   
    11     5     7 1   
    12     5    16 1   
    13     6    17 1   
    14     7     8 1   
    15     7     9 1   
    16     7    18 1   
    17     8    19 1   
    18     9    10 1   
    19     9    11 1   
    20     9    20 1   
    21    11    12 1   
    22    11    21 1   
    23    11    22 1   
    24    12    23 1   
    25    24    30 1   
    26    25    26 ar  
    27    25    30 ar  
    28    26    27 ar  
    29    26    39 1   
    30    27    28 ar  
    31    27    40 1   
    32    28    29 ar  
    33    28    31 1   
    34    29    30 ar  
    35    29    41 1   
    36    31    32 ar  
    37    31    36 ar  
    38    32    33 ar  
    39    32    42 1   
    40    33    34 ar  
    41    33    43 1   
    42    34    35 ar  
    43    34    37 1   
    44    35    36 ar  
    45    35    44 1   
    46    36    45 1   
    47    37    38 3   
@<TRIPOS>SUBSTRUCTURE
     1 CWK         1 TEMP              0 ****  ****    0 ROOT
