@<TRIPOS>MOLECULE
CWK
   24    24     1     0     0
SMALL
No Charge or Current Charge


@<TRIPOS>ATOM
      1 C1          -2.2840     7.7420     9.9910 c3      1160 CWK       0.000000
      2 O1          -3.2850     8.7610    10.1170 oh      1160 CWK       0.000000
      3 C2          -1.0590     8.4360     9.4920 c3      1160 CWK       0.000000
      4 O2          -0.0580     7.4400     9.4060 oh      1160 CWK       0.000000
      5 C3          -1.3520     9.0460     8.0830 c3      1160 CWK       0.000000
      6 O3          -0.1020     9.5770     7.5710 oh      1160 CWK       0.000000
      7 C4          -1.8310     7.9640     7.1420 c3      1160 CWK       0.000000
      8 O4          -2.1810     8.5860     5.8990 oh      1160 CWK       0.000000
      9 C5          -3.0750     7.3380     7.7260 c3      1160 CWK       0.000000
     10 O5          -2.7840     6.7670     9.0220 os      1160 CWK       0.000000
     11 C6          -3.6180     6.1590     6.9000 c3      1160 CWK       0.000000
     12 O6          -2.6440     5.1300     6.7710 oh      1160 CWK       0.000000
     13 HO1         -4.0550     8.5870    10.3800 ho      1160 CWK       0.000000
     14 H1          -2.0860     7.2710    10.9540 h2      1160 CWK       0.000000
     15 H5          -3.8500     8.0980     7.8300 h1      1160 CWK       0.000000
     16 H2          -0.7620     9.2210    10.1870 h1      1160 CWK       0.000000
     17 HO2          0.0940     7.0410    10.3100 ho      1160 CWK       0.000000
     18 H3          -2.1020     9.8330     8.1620 h1      1160 CWK       0.000000
     19 HO3          0.5760     8.8440     7.5200 ho      1160 CWK       0.000000
     20 H4          -1.0550     7.2110     7.0020 h1      1160 CWK       0.000000
     21 HO4         -2.5440     7.8960     5.2720 ho      1160 CWK       0.000000
     22 H61         -4.3830     5.6260     7.3680 h1      1160 CWK       0.000000
     23 H62         -3.7780     6.3820     5.8930 h1      1160 CWK       0.000000
     24 HO6         -3.0220     4.3780     6.2310 ho      1160 CWK       0.000000
@<TRIPOS>BOND
     1     1     2 1   
     2     1     3 1   
     3     1    10 1   
     4     1    14 1   
     5     2    13 1   
     6     3     4 1   
     7     3     5 1   
     8     3    16 1   
     9     4    17 1   
    10     5     6 1   
    11     5     7 1   
    12     5    18 1   
    13     6    19 1   
    14     7     8 1   
    15     7     9 1   
    16     7    20 1   
    17     8    21 1   
    18     9    10 1   
    19     9    11 1   
    20     9    15 1   
    21    11    12 1   
    22    11    22 1   
    23    11    23 1   
    24    12    24 1   
@<TRIPOS>SUBSTRUCTURE
     1 CWK         1 TEMP              0 ****  ****    0 ROOT
